---- qbsp / ericw-tools 2.0.0-alpha9-6-gea1e4696-dirty ----

--- Options Summary ---
    "notex" was set to "1" (from command line)

Input file: /Users/jack/repos/personal/arctic-char/assets/./maps/test.map
Output file: /Users/jack/repos/personal/arctic-char/assets/./maps/test.bsp

INFO: using built-in palette.
WARNING: No wad or _wad key exists in the worldmodel
     1 entities
     3 unique textures
     7 texinfos
    18 unique planes

INFO: world extents calculated to 552 units
     3 brushes
    18 sides

            0 texture frames added
Attempting to load texture: textures/skip.png
Attempting to load texture: textures/wall.png
Attempting to load texture: textures/floor.png
Processing hull 0...
    3 SOLID brushes
    3 brushes total
    18 visible sides
INFO: calculating BSP for 3 brushes with 18 sides
     3 brushes
     7 visible faces
    11 non-visible faces
    13 nodes
     9 non-visible nodes
    13 expensive split nodes
    14 leaves
     3 SOLID leafs
    11 EMPTY leafs
    14 leafs total
    8 max tree height
    6 avg tree height
    68 tree portals
WARNING: No entities in empty space -- no filling performed (hull 0)
    68 tree portals
    15 sides visible
    15 makefaces
     2 merged
    11 player-occupiable leaves
    11 clusters of leaves
    25 vis portals
     3 SOLID leafs
    11 EMPTY leafs
    14 leafs total
    8 max tree height
    6 avg tree height
     1 edges added by tjunctions
     5 faces optimized through MWT
    11 triangles computed from MWT
    15 edges
     5 faces
Processing hull 1...
WARNING: No entities in empty space -- no filling performed (hull 1)
Processing hull 2...
WARNING: No entities in empty space -- no filling performed (hull 2)
Writing ./maps/test.bsp as Quake BSP bsp29
Wrote ./maps/test.bsp

count   lump name    byte size 
      1 models               64
     27 planes              540
     11 vertexes            132
     13 nodes               312
      3 texinfos            120
      5 faces               100
     42 clipnodes           336
     12 leafs               336
      5 marksurfaces         10
     16 edges                64
     21 surfedges            84
      3 textures            136
        lightdata             0
        visdata               0
        entdata              30

0.013s seconds elapsed


